Sistemas teste e codigos/ED_piorCaso/Sistemas/229bus_NEsystem2.pwf
TITU
SISTEMA NORDESTE DE 229 BARRAS
DOPC IMPR
(Op) E (Op) E (Op) E (Op) E (Op) E (Op) E (Op) E (Op) E (Op) E (Op) E
QLIM D CREM D CTAP D STEP L NEWT L MOCT D MOCG D MOCF D RCVG L RMON L
FILE L
99999
DCTE
(Mn) ( Val) (Mn) ( Val) (Mn) ( Val) (Mn) ( Val) (Mn) ( Val) (Mn) ( Val)  
BASE    100 ICMN   1E-6 ACIT   9999 ICIT   9999  
99999
DBAR
(Num)OETGb(   nome   )Gl( V)( A)( Pg)( Qg)( Qn)( Qm)(Bc  )( Pl)( Ql)( Sh)Are(Vf)M(1)(2)(3)(4)(5)(6)(7)(8)(9)(10
  101  0 3CQBRD1EOL034 11000   0    0         0    0      -34.8-11.4    0  3                                        
  102  0 3BVENTSEOL034 11000   0    0         0    0      -30.5  -10    0  3                                        
  103  0 3ENACELEOL034 11000   0    0         0    0      -19.2 -6.3    0  3                                        
  104  0 3 ARACT2CE034 11000   0    0         0    0          0    0    0  3                                        
  105  0 6 ARACT2CE230 11000   0    0         0    0          0    0    0  3                                        
  106  0 6 RUSSA2CE230 11000   0    0         0    0          0    0    0  3                                        
  107  0 4 RUSSASCE069 11000   0    0         0    0       54.4  7.8    0  3                                        
  108  0 6 BANABUCE230 11000   0    0         0    0       11.9  2.4    0  3                                        
  109  0 4 BANABUCE069 11000   0    0         0    0       62.2  8.9    0  3                                        
  110  0 6 QUIXERCE230 11000   0    0         0    0          0    0    0  3                                        
  111  0 6 MOSSR2RN230 11000   0    0         0    0          0    0    0  3                                        
  112  0 4 MOSSORRN069 11000   0    0         0    0       92.3 15.8    0  3                                        
  113  0 6 CARCA2RN230 11000   0    0         0    0          0    0    0  3                                        
  114  0 1 CARCA2RN013 11000   0    0         0    0          0    0    0  3                                        
  115  0 6 A.BRANRN230 11000   0    0         0    0          0    0    0  3                                        
  116  0 3 ABRAB1RN034 11000   0    0         0    0          0    0    0  3                                        
  117  0 3A.BRANEOL034 11000   0    0         0    0      -16.7 -5.5    0  3                                        
  118  0 3MARTEREOL034 11000   0    0         0    0        -14 -4.6    0  3                                        
  119  0 3COLONIEOL034 11000   0    0         0    0      -11.6 -3.8    0  3                                        
  120  0 3T.ANDOEOL034 11000   0    0         0    0        -14 -4.6    0  3                                        
  121  0 3T.AGUIEOL034 11000   0    0         0    0       -9.2   -3    0  3                                        
  122  0 3 CTAIBACE034 11000   0    0         0    0          0    0    0  3                                        
  123  0 6 CTAIBACE230 11000   0    0         0    0          0    0    0  3                                        
  124  0 6 PECEM2CE230 11000   0    0         0    0          0    0    0  3                                        
  125  0 4 PECEM2CE069 11000   0    0         0    0        5.1    1    0  3                                        
  126  0 7 PECEM2CE500 11000   0    0         0    0          0    0    0  3                                        
  127  0 7 FORTALCE500 11000   0    0         0    0          0    0    0  3                                        
  128  0 6 FORTA2CE230 11000   0    0         0    0          0    0    0  3                                        
  129  0 6 ENPECECE230 11000   0    0         0    0       20.4  9.9    0  3                                        
  130  0 4 ENPECECE069 11000   0    0         0    0        5.1    1    0  3                                        
  131  0 6  ENPECCE230 11000   0    0         0    0          0    0    0  3                                        
  132  1 2ENPECEUTE020 11000   0  504      -244  244          0    0   10  3                                        
  133  1 2 ENPECUTE020 11000   0  255      -124  124          0    0   10  3                                        
  134  0 6    CSPCE230 11000   0    0         0    0          0    0    0  3                                        
  135  1 1   CSPUTE013 11000   0  153       -74   74          0    0    0  3                                        
  136  0 6 D.GOUVCE230 11000   0    0         0    0          0    0    0  3                                        
  137  0 4 D.GOUBCE069 11000   0    0         0    0      143.2 20.4    0  3                                        
  138  0 6   PICICE230 11000   0    0         0    0          0    0    0  3                                        
  139  0 4   PICICE069 11000   0    0         0    0      228.7 46.4    0  3                                        
  140  0 6 CAUIPECE230 11000   0    0         0    0          0    0    0  3                                        
  141  0 4 CAUIPECE069 11000   0    0         0    0      104.3 14.9    0  3                                        
  142  1 6 UTEFORCE230 11000   0  229      -111  111          0    0    0  3                                        
  143  1 6 UTECEACE230 11000   0  156       -76   76          0    0    0  3                                        
  144  0 6 MARAC2CE230 11000   0    0         0    0          0    0    0  3                                        
  145  1 1MARAC2UTE013 11000   0  114       -55   55          0    0    0  3                                        
  146  0 6 FORTALCE230 11000   0    0         0    0          0    0    0  3                                        
  147  0 4 FORTALCE069 11000   0    0         0    0      134.4 33.7    0  3                                        
  148  0 6 AQUIRACE230 11000   0    0         0    0          0    0    0  3                                        
  149  0 4 AQUIRACE069 11000   0    0         0    0      189.2 38.5    0  3                                        
  150  0 7 QUIXADCE500 11000   0    0         0    0          0    0    0  3                                        
  151  0 6 TRAIRICE230 11000   0    0         0    0          0    0    0  3                                        
  152  0 3 TRAIRICE034 11000   0    0         0    0          0    0    0  3                                        
  153  0 3MUNDAUEOL034 11000   0    0         0    0      -18.3   -6    0  3                                        
  154  0 3FLEXE1EOL034 11000   0    0         0    0      -18.3   -6    0  3                                        
  155  0 3TRAIRIEOL034 11000   0    0         0    0      -15.3   -5    0  3                                        
  156  0 3 GUAJIEOL034 11000   0    0         0    0      -18.3   -6    0  3                                        
  157  0 3SCRISTEOL034 11000   0    0         0    0      -15.9 -5.2    0  3                                        
  158  0 3SJORGEEOL034 11000   0    0         0    0      -14.6 -4.8    0  3                                        
  159  0 3SANTPAEOL034 11000   0    0         0    0       -8.5 -2.8    0  3                                        
  160  0 6 CFAISACE230 11000   0    0         0    0          0    0    0  3                                        
  161  0 3 CFAISACE034 11000   0    0         0    0          0    0    0  3                                        
  162  0 3 SANTOSCE034 11000   0    0         0    0          0    0    0  3                                        
  163  0 3FAISA4EOL034 11000   0    0         0    0      -15.3   -5    0  3                                        
  164  0 3FAISA5EOL034 11000   0    0         0    0      -17.7 -5.8    0  3                                        
  165  0 3FAISA3EOL034 11000   0    0         0    0      -15.3   -5    0  3                                        
  166  0 3EMBUACEOL034 11000   0    0         0    0      -16.5 -5.4    0  3                                        
  167  0 3FAISA1EOL034 11000   0    0         0    0      -17.7 -5.8    0  3                                        
  168  0 3FAISA2EOL034 11000   0    0         0    0      -16.5 -5.4    0  3                                        
  169  0 6 SOBRA3CE230 11000   0    0         0    0          0    0    0  3                                        
  170  0 6 SOBRALCE230 11000   0    0         0    0       23.5 10.1    0  3                                        
  171  0 6 ACARA2CE230 11000   0    0         0    0          0    0    0  3                                        
  172  0 4 ACA2B2CE069 11000   0    0         0    0       23.4  3.4    0  3                                        
  173  0 4 VLTRIOCE069 11000   0    0         0    0          0    0    0  3                                        
  174  0 3VLTRIOEOL034 11000   0    0         0    0      -20.5 -6.7    0  3                                        
  175  0 4 PMRGDOCE069 11000   0    0         0    0          0    0    0  3                                        
  176  0 3PMRGD0EOL034 11000   0    0         0    0        -14 -4.6    0  3                                        
  177  0 4 PAPAGACE069 11000   0    0         0    0          0    0    0  3                                        
  178  0 6 ITAREMCE230 11000   0    0         0    0          0    0    0  3                                        
  179  0 6 MASSAPCE230 11000   0    0         0    0          0    0    0  3                                        
  180  0 6 PFORMOCE230 11000   0    0         0    0          0    0    0  3                                        
  181  0 3 PFORMOCE034 11000   0    0         0    0          0    0    0  3                                        
  182  0 3PFORMOEOL034 11000   0    0         0    0      -51.2-16.8    0  3                                        
  183  0 6 ICARAZCE230 11000   0    0         0    0          0    0    0  3                                        
  184  0 3 ICARAZCE034 11000   0    0         0    0          0    0    0  3                                        
  185  0 3ICARAZEOL034 11000   0    0         0    0      -26.8 -8.8    0  3                                        
  186  0 3ARARASEOL034 11000   0    0         0    0      -14.6 -4.8    0  3                                        
  187  0 7 SOBRA3CE500 11000   0    0         0    0          0    0    0  3                                        
  188  0 4 SOBRALCE069 11000   0    0         0    0      115.7 16.5    0  3                                        
  189  0 3 ITAREMCE034 11000   0    0         0    0          0    0    0  3                                        
  190  0 3ICARA1EOL034 11000   0    0         0    0      -16.5 -5.4    0  3                                        
  191  0 3ICARA2EOL034 11000   0    0         0    0      -23.2 -7.6    0  3                                        
  192  0 3I.GRANEOL034 11000   0    0         0    0      -18.3   -6    0  3                                        
  193  0 3B.CORREOL034 11000   0    0         0    0      -14.6 -4.8    0  3                                        
  194  0 3RIBEIREOL034 11000   0    0         0    0      -13.4 -4.4    0  3                                        
  195  0 3 ICARAICE034 11000   0    0         0    0          0    0    0  3                                        
  196  0 6 ICARAICE230 11000   0    0         0    0          0    0    0  3                                        
  197  1 1 POTI1UTE013 11000   0   37       -18   18          0    0    0  3                                        
  198  1 1 POTI3UTE013 11000   0   39       -19   19          0    0    0  3                                        
  199  0 4   POTGTRN69 11000   0    0         0    0          0    0    0  3                                        
  200  0 4 NATAL3RN069 11000   0    0         0    0       96.7 14.9    0  3                                        
  201  0 6 NATAL3RN230 11000   0    0         0    0          0    0    0  3                                        
  202  0 6 NATAL2RN230 11000   0    0         0    0          0    0    0  3                                        
  203  0 4 NATAL2RN069 11000   0    0         0    0      121.8 15.2    0  3                                        
  204  0 6 EXTRE2RN230 11000   0    0         0    0          0    0    0  3                                        
  205  0 4 EXTREMRN069 11000   0    0         0    0      102.3 11.4    0  3                                        
  206  1 1C.GRDEUTE013 11000   0  118       -57   57          0    0    0  3                                        
  207  0 6 CGRAN1PB230 11000   0    0         0    0          0    0    0  3                                        
  208  0 4  CGRANPB069 11000   0    0         0    0          0    0    0  3                                        
  209  0 6C.GRAN3PB230 11000   0    0         0    0          0    0    0  3                                        
  210  0 7C.GRAN3PB500 11000   0    0         0    0          0    0    0  3                                        
  211  0 6 TACAIMPE230 11000   0    0         0    0          0    0    0  3                                        
  212  0 4 TACAIMPE069 11000   0    0         0    0       96.2 14.8    0  3                                        
  213  0 6 PARAISRN230 11000   0    0         0    0          0    0    0  3                                        
  214  0 5 PARAISRN138 11000   0    0         0    0         51 10.2    0  3                                        
  215  0 6 COTEMIPE230 11000   0    0         0    0         33 10.8    0  3                                        
  216  0 4 LIMOEIPE069 11000   0    0         0    0         51 10.2    0  3                                        
  217  0 6 LIMOEIPE230 11000   0    0         0    0          0    0    0  3                                        
  218  1 1PAUFERUTE013 11000   0   66       -32   32          0    0    0  3                                        
  219  0 6  PAUFEPE230 11000   0    0         0    0          0    0    0  3                                        
  220  0 7  PAUFEPE500 11000   0    0         0    0          0    0    0  3                                        
  221  0 4  PAUFEPE069 11000   0    0         0    0        176 47.8    0  3                                        
  222  1 1PERNA3UTE013 11000   0  141       -68   68          0    0    0  3                                        
  223  0 6 PERNA3PE230 11000   0    0         0    0          0    0    0  3                                        
  224  1 1MANAUSUTE013 11000   0  100       -48   48          0    0    0  3                                        
  225  0 6 ALDEIAPE230 11000   0    0         0    0          0    0    0  3                                        
  226  0 6 GOIANIPE230 11000   0    0         0    0          0    0    0  3                                        
  227  0 4 GOIANIPE069 11000   0    0         0    0      138.4 56.9    0  3                                        
  228  0 4 ALHANDRN069 11000   0    0         0    0          0    0    0  3                                        
  229  1 1TERMNEUTE013 11000   0  113       -55   55          0    0    0  3                                        
  230  1 1TERMPBUTE013 11000   0  113       -55   55          0    0    0  3                                        
  231  0 6 UTEMUSPB230 11000   0    0         0    0          0    0    0  3                                        
  232  0 6 MUSSURPB230 11000   0    0         0    0          0    0    0  3                                        
  233  0 4 MUSSURPB069 11000   0    0         0    0      205.2 53.2    0  3                                        
  234  0 6  STARIPB230 11000   0    0         0    0          0    0    0  3                                        
  235  0 4 SANTARPB069 11000   0    0         0    0      139.4 29.1    0  3                                        
  236  0 6 NORFILPB230 11000   0    0         0    0       62.3 20.5    0  3                                        
  237  0 4 PIRAUAPE069 11000   0    0         0    0          0    0    0  3                                        
  238  0 6 MIRUE2PE230 11000   0    0         0    0          0    0    0  3                                        
  239  0 4 MIRUE2PE069 11000   0    0         0    0       85.1 11.7    0  3                                        
  240  0 6 RECIFEPE230 11000   0    0         0    0          0    0    0  3                                        
  241  0 7 RECIFEPE500 11000   0    0         0    0          0    0    0  3                                        
  242  0 6 JOAIRAPE230 11000   0    0         0    0          0    0    0  3                                        
  243  0 4 JOAIRAPE069 11000   0    0         0    0      131.1 -5.5    0  3                                        
  244  0 6  BONGIPE230 11000   0    0         0    0       12.6  6.8    0  3                                        
  245  0 6 MIRUE1PE230 11000   0    0         0    0        5.9  0.3    0  3                                        
  246  0 4 MIRUE1PE069 11000   0    0         0    0      164.8 21.4    0  3                                        
  247  0 6 JABOATPE230 11000   0    0         0    0          0    0    0  3                                        
  248  0 4 JABOATPE069 11000   0    0         0    0       87.5 25.7    0  3                                        
  249  0 6 RIBEIRPE230 11000   0    0         0    0          0    0    0  3                                        
  250  0 4 RIBEIRPE069 11000   0    0         0    0      137.6 23.1    0  3                                        
  251  0 4  BONGIPE069 11000   0    0         0    0      240.5 29.3    0  3                                        
  252  0 7 GARANHPE500 11000   0    0         0    0          0    0    0  3                                        
  253  0 6 GARANHPE230 11000   0    0         0    0          0    0    0  3                                        
  254  0 6 SCLEMEPE230 11000   0    0         0    0          0    0    0  3                                        
  255  0 3 SCLEMEPE034 11000   0    0         0    0          0    0    0  3                                        
  256  0 6 PARAN1PE230 11000   0    0         0    0          0    0    0  3                                        
  257  0 3 PARAN1PE034 11000   0    0         0    0          0    0    0  3                                        
  258  0 6 CAETE2PE230 11000   0    0         0    0          0    0    0  3                                        
  259  0 3 CAETE2PE034 11000   0    0         0    0          0    0    0  3                                        
  260  0 6 ANGELIPE230 11000   0    0         0    0          0    0    0  3                                        
  261  0 4 ANGELIPE069 11000   0    0         0    0       68.1 -8.5    0  3                                        
  262  0 1 ANGELIPE013 11000   0    0         0    0          2  0.7    0  3                                        
  263  0 7 ANGEL2PE500 11000   0    0         0    0          0    0    0  3                                        
  264  0 4 ABAIXABA069 11000   0    0         0    0        6.5  1.1    0  3                                        
  265  1 1PAF2A1UHE013 11000   0   24       -11   11          0    0    0  3                                        
  266  1 1PAF2A2UHE013 11000   0   24       -11   11          0    0    0  3                                        
  267  1 1PAF2A3UHE013 11000   0   24       -11   11          0    0    0  3                                        
  268  1 1PAF2B1UHE013 11000   0   24       -11   11          0    0    0  3                                        
  269  1 1PAF2B2UHE013 11000   0   24       -11   11          0    0    0  3                                        
  270  1 1PAF2B3UHE013 11000   0   24       -11   11          0    0    0  3                                        
  271  0 6 TACARAPE230 11000   0    0         0    0          0    0    0  3                                        
  272  0 3 TACARAPE034 11000   0    0         0    0          0    0    0  3                                        
  273  0 6 ZEBUIIAL230 11000   0    0         0    0          0    0    0  3                                        
  274  0 4 ZEBUIIAL069 11000   0    0         0    0          0    0    0  3                                        
  275  0 6 FLORIIPE230 11000   0    0         0    0        100    0    0  3                                        
  276  0 6  PAF3ABA230 11000   0    0         0    0        2.1  0.7    0  3                                        
  277  0 6  PAF3BBA230 11000   0    0         0    0          0    0    0  3                                        
  278  1 1ASALE1UHE013 11000   0   64       -31   31          0    0    0  3                                        
  279  0 6 ASALEAAL230 11000   0    0         0    0          0    0    0  3                                        
  280  1 1ASALE2UHE013 11000   0   64       -31   31          0    0    0  3                                        
  281  0 6 ASALEBAL230 11000   0    0         0    0          0    0    0  3                                        
  282  1 1 PAF11UHE013 11000   0   58       -28   28          0    0    0  3                                        
  283  1 1 PAF31UHE013 11000   0  254      -123  123          0    0    0  3                                        
  284  1 1 PAF32UHE013 11000   0  254      -123  123          0    0    0  3                                        
  285  1 1SOBRA1UHE013 11000   0  337      -163  163          0    0    0  3                                        
  286  0 7 SOBRADBA500 11000   0    0         0    0          0    0    0  3                                        
  287  0 6 SOBRADBA230 11000   0    0         0    0          0    0    0  3                                        
  288  1 1LGONZ1UHE013 11000   0  474      -229  229          0    0    0  3                                        
  289  1 1LGONZ2UHE013 11000   0  474      -229  229          0    0    0  3                                        
  290  0 7 LGONZAPE000 11000   0    0         0    0          0    0    0  3                                        
  291  0 7 L.GONZPE500 11000   0    0         0    0          0    0    0  3                                        
  292  0 7   PAF4BA500 11000   0    0         0    0          0    0    0  3                                        
  293  1 1 PAF41UHE013 11000   0  788      -382  382          0    0    0  3                                        
  294  2 1XINGO1UHE013 11000   0    0         0    0          0    0    0  3                                        
  295  0 7  XINGOSE500 11000   0    0         0    0          0    0    0  3                                        
  296  1 1  CABOUTE013 11000   0  105       -51   51          0    0    0  3                                        
  297  0 4 PIRAPAPE069 11000   0    0         0    0       95.9 32.3    0  3                                        
  298  0 4 VITORIPE069 11000   0    0         0    0          0    0    0  3                                        
  299  0 1 VITORIPE013 11000   0    0         0    0        5.1    1    0  3                                        
  300  0 6 PIRAPAPE230 11000   0    0         0    0          0    0    0  3                                        
...
99999
DLIN
(De )d O d(Pa )NcEP ( R% )( X% )(Mvar)(Tap)(Tmn)(Tmx)(Phs)(Bc  )(Cn)(Ce)Ns(Cq)(1)(2)(3)(4)(5)(6)(7)(8)(9)(10
  101       104 1     3.65   6.7 0.003                            30                                                
  101       104 2     3.65   6.7 0.003                            30                                                
  101       104 3     3.65   6.7 0.003                            30                                                
  101       104 4     3.65   6.7 0.003                            30                                                
  101       104 5     3.65   6.7 0.003                            30                                                
  102       104 1    20.93 38.35 0.018                            30                                                
  102       104 2    20.93 38.35 0.018                            30                                                
  102       104 3    20.93 38.35 0.018                            30                                                
  102       104 4    20.93 38.35 0.018                            30                                                
  102       104 5    20.93 38.35 0.018                            30                                                
  103       104 1     3.32  6.09 0.003                            30                                                
  103       104 2     3.32  6.09 0.003                            30                                                
  103       104 3     3.32  6.09 0.003                            30                                                
  104       105 1        0  12.5     0                            80                                                
  105       106 1     0.76  5.76   2.6                           200                                                
  106       107 1        0 12.42     0                           100                                                
  106       107 2        0    13     0                           100                                                
  106       107 3        0 13.02     0                           100                                                
  106       108 1     2.01 10.77  4.65                           247                                                
  106       108 2     1.45  7.48  6.68                           601                                                
  106       110 1     0.55  2.94  1.27                           317                                                
  108       109 1        0 13.27     0                           103                                                
  108       109 2        0 13.27     0                           103                                                
  108       109 3        0    26     0                           136                                                
  108       109 4        0 13.27     0                           100                                                
  108       148 1     2.85    1211.005                           392                                                
  108       148 2     2.85    1211.005                           392                                                
  108       148 3     2.85    1211.005                           307                                                
  110       111 1     0.83  4.42 1.905                           317                                                
  110       111 2     0.83  4.42 1.905                           317                                                
  111       112 1        0 12.97     0                           103                                                
  111       112 2        0 12.97     0                           103                                                
  111       112 3        0 13.28     0                           103                                                
  111       112 4        0 13.28     0                           103                                                
  111       108 1     3.21 16.54 7.835                           251                                                
  111       108 2     3.21 16.54 7.835                           251                                                
  111       113 1     0.52  3.45 3.253                           649                                                
  111       113 2     0.52  3.45 3.253                           649                                                
  111       115 1     1.58   5.8  2.52                           255                                                
  111       115 2     1.58   5.8  2.52                           255                                                
  113       114 1        0    10     0                           100                                                
  115       116 1        0 16.67     0                            60                                                
  116       117 1     2.52  4.62 0.003                            30                                                
  116       117 2     2.52  4.62 0.003                            30                                                
  116       118 1      2.9  5.32 0.003                            30                                                
  116       118 2      2.9  5.32 0.003                            30                                                
  122       119 1      3.5  8.75 0.005                            38                                                
  122       119 2      3.5  8.75 0.005                            38                                                
  122       120 1     6.73 16.82 0.008                            38                                                
  122       120 2     6.73 16.82 0.008                            38                                                
  122       121 1     4.17 10.43 0.005                            38                                                
  122       121 2     4.17 10.43 0.005                            38                                                
  122       123 1        0    20     0                            75                                                
  124       123 1     0.21  1.02 0.468                           309                                                
  124       126 1        0  1.17     0                          1200                                                
  124       126 2        0  1.17     0                          1200                                                
  124       126 3        0  1.17     0                          1200                                                
  124       125 1        0   1.3     0                           103                                                
  126       127 1     0.05  0.81 29.75                          2728                                                
  126       127 2     0.05  0.78 28.75                          1992                                                
  129       124 1        0  0.67 0.228                           690                                                
  129       124 2        0  0.67 0.228                           690                                                
  129       124 3        0  0.67 0.228                           690                                                
  134       124 1     0.02   0.1 0.043                           308                                                
  134       124 2     0.02   0.1 0.043                           308                                                
  135       134 1        0  1.39     0                           720                                                
  130       129 1        0 14.29     0                            70                                                
  131       129 1        0  0.01 0.008                           690                                                
  131       129 2        0  0.01 0.008                           690                                                
  132       131 1        0  1.18     0                           850                                                
  133       131 1        0  1.18     0                           850                                                
  128       127 1        0  1.27     0                           600                                                
  128       127 2        0  1.27     0                           600                                                
  128       127 3        0  1.27     0                           600                                                
  128       127 4        0  1.27     0                           600                                                
  128       146 1     0.01  0.02 0.015                           803                                                
  128       146 2     0.01  0.02 0.015                           803                                                
  128       146 3     0.01  0.03 0.015                           803                                                
  128       138 1      0.4  1.93 1.605                           457                                                
  128       138 2      0.4  1.93 1.605                           457                                                
  128       136 1     0.06  0.49 0.435                           751                                                
  128       136 2     0.06  0.49 0.435                           751                                                
  128       140 1     0.53  3.72  3.67                           600                                                
  128       140 2     0.53  3.72  3.67                           600                                                
  144       128 1     0.05  0.05     0                          9990                                                
  144       145 1        0 13.57     0                           315                                                
  146       147 1        0 13.27     0                           106                                                
  146       147 2        0  12.9     0                           106                                                
  146       147 3        0 12.98     0                           106                                                
  146       147 4        0 12.97     0                           106                                                
  148       146 1     0.29  1.22 1.108                           308                                                
  150       127 1     0.14  1.55 50.75                          2608                                                
  147       137 1     1.32  4.81 0.025                           445                                                
  147       137 2     1.46  5.34 0.028                           445                                                
  136       137 1        0 12.47     0                           445                                                
  136       137 2        0 12.47     0                           445                                                
  136       137 3        0 12.47     0                           445                                                
  136       137 4        0 12.47     0                           445                                                
  138       139 1        0    13     0                           445                                                
  138       139 2        0    13     0                           445                                                
  138       139 3        0 13.25     0                           445                                                
  138       139 4        0 13.19     0                           445                                                
  138       139 5        0 13.26     0                           445                                                
  148       149 1        0  9.33     0                           445                                                
  148       149 2        0  9.33     0                           445                                                
  148       149 3        0  9.33     0                           445                                                
  148       149 4        0  9.33     0                           445                                                
  140       141 1        0 12.72     0                           445                                                
  140       141 2        0 12.72     0                           445                                                
  140       141 3        0 12.72     0                           445                                                
  142       140 1     0.01  0.16 0.085                           445                                                
  142       140 2     0.01  0.16 0.085                           445                                                
  140       143 1        0  0.42     0                           445                                                
  124       151 1     1.77  6.51 2.855                            51                                                
  124       151 2     1.77  6.51 2.855                            51                                                
  151       152 1        0  12.5     0                           131                                                
  153       152 1    12.91 32.26 0.015                            66                                                
  153       152 2    12.91 32.26 0.015                            66                                                
  153       152 3    12.91 32.26 0.015                            66                                                
  154       152 1    11.73 29.33 0.015                            76                                                
  154       152 2    11.73 29.33 0.015                            76                                                
  154       152 3    11.73 29.33 0.015                            76                                                
  155       152 1     0.57  1.42     0                            76                                                
  155       152 2     0.57  1.42     0                            76                                                
  156       152 1    14.08 35.19 0.018                            83                                                
  156       152 2    14.08 35.19 0.018                            83                                                
  157       162 1    11.91 38.36  0.02                           170                                                
  157       162 2    11.91 38.36  0.02                           170                                                
  158       162 1    11.91 38.36  0.02                           165                                                
  158       162 2    11.91 38.36  0.02                           165                                                
  159       162 1     9.35 30.12 0.015                           216                                                
  159       162 2     9.35 30.12 0.015                           216                                                
  161       160 1        0  6.67     0                            51                                                
  161       160 2        0  6.67     0                            51                                                
  162       160 1        0 13.33     0                           131                                                
  162       160 2        0 13.33     0                           131                                                
  124       160 1      1.2  5.76 2.638                            66                                                
  124       160 2      1.2  5.76 2.638                            66                                                
  161       166 1    18.18 45.46 0.023                            76                                                
  161       166 2    18.18 45.46 0.023                            76                                                
  161       163 1     2.17  5.43 0.003                            76                                                
  161       162 1     2.17  5.43 0.003                            76                                                
  161       165 1     1.17  2.93 0.003                            83                                                
  161       165 2     1.17  2.93 0.003                            83                                                
  161       164 1     3.81  9.53 0.005                           170                                                
  161       164 2     3.81  9.53 0.005                           170                                                
  161       168 1     2.66  6.66 0.003                           165                                                
  161       168 2     2.66  6.66 0.003                           165                                                
  161       167 1     2.64   6.6 0.003                           216                                                
  161       167 2     2.64   6.6 0.003                           216                                                
  169       171 1     2.13  8.66 3.878                            51                                                
  169       171 2     2.13  8.66 3.878                            51                                                
  169       179 1     0.32  1.04 0.473                            51                                                
  169       187 1        0  1.27     0                            51                                                
  169       170 1     0.14  1.02 0.918                            51                                                
  169       170 2     0.14  1.02 0.918                            51                                                
  169       196 1     2.07  9.89 4.533                            51                                                
  169       196 2     2.07  9.89 4.533                            51                                                
  170       188 1        0 13.18     0                            51                                                
  170       140 1     3.26 17.55     0                            51                                                
  171       178 1      0.3  1.75 0.825                            51                                                
  172       177 1     2.84 14.71 0.073                            51                                                
  172       177 2     2.84 14.71 0.073                            51                                                
  172       171 1        0    10     0                            51                                                
  173       172 1     2.07 15.14  0.08                            51                                                
  174       173 1        0 22.22     0                            51                                                
  175       172 1     4.07 16.52  0.08                            51                                                
  176       175 1        0 33.33     0                            51                                                
  177       186 1        0 39.39     0                            51                                                
  178       189 1        0  8.33     0                            51                                                
  179       180 1     1.95 10.06 4.558                            51                                                
  179       180 2     1.95 10.06 4.558                            51                                                
  179       183 1     1.99 10.25 4.568                            51                                                
  179       183 2     1.99 10.25 4.568                            51                                                
  181       180 1        0  8.33     0                            51                                                
  182       181 1     0.88  2.84 0.003                            51                                                
  182       181 2     0.88  2.84 0.003                            51                                                
  182       181 3     0.88  2.84 0.003                            51                                                
  184       183 1        0 16.67     0                            51                                                
  185       184 1     1.17  2.93 0.003                            51                                                
  185       184 2     1.17  2.93 0.003                            51                                                
  187       126 1     0.12  1.89 69.75                            51                                                
  190       195 1    10.91 19.99  0.01                            51                                                
  190       195 2    10.91 19.99  0.01                            51                                                
  191       195 1     7.52 13.77 0.005                           131                                                
  191       195 2     7.52 13.77 0.005                           131                                                
  191       195 3     7.52 13.77 0.005                           131                                                
  192       195 1    25.44 46.62  0.02                            66                                                
  192       195 2    25.44 46.62  0.02                            66                                                
  193       195 1     15.4 28.23 0.013                            76                                                
  193       195 2     15.4 28.23 0.013                            76                                                
  194       195 1    20.23 37.08 0.018                            76                                                
  194       195 2    20.23 37.08 0.018                            76                                                
  194       195 3    20.23 37.08 0.018                            76                                                
  195       196 1        0 14.29     0                            83                                                
  200       199 1     1.41   6.2  0.03                            51                                                
  197       199 1        0  35.2     0                           131                                                
  198       199 1        0  35.2     0                            66                                                
  202       203 1        0    13     0                            76                                                
  213       202 1     1.75  9.03   4.3                            76                                                
...
(na linha 223-219 o valor da reatância estava nulo)                                                                  
  222       223 1        0     5     0                           530                                                
  240       219 1     0.39   2.8 2.605                           445                                                
  241       220 1     0.14  1.3334.198                           938                                                
  240       245 1     0.58  2.96 1.385                           530                                                
  240       245 2     0.58   3.1 1.335                           445                                                
  245       246 1        0 12.53     0                           445                                                
  245       246 2        0 14.17     0                           445                                                
  245       246 3        0 14.41     0                           445                                                
  238       239 1        0  8.67     0                           445                                                
  219       217 1     0.39  2.72 2.438                           223                                                
  217       216 1        0    13     0                           223                                                
  217       215 1      0.8  5.69   5.1                           223                                                
  240       226 1     1.31  6.79 3.068                           223                                                
  226       234 1     1.07  5.59 2.468                           329                                                
  226       232 1     0.94   4.8  2.24                           530                                                
  226       227 1        0    13     0                           445                                                
  226       227 2        0    13     0                           445                                                
  226       227 3        0    13     0                           445                                                
  226       236 1     0.88  4.67  2.15                           445                                                
  219       226 2     0.69  3.78 2.073                           445                                                
  228       227 1     0.41  1.01 0.005                           223                                                
  237       227 1     4.38 10.69 0.043                           329                                                
  232       233 1        0    13     0                           530                                                
  232       233 2        0 13.03     0                           530                                                
  232       233 3        0 13.19     0                           530                                                
  226       232 2     0.94   4.8  2.24                           445                                                
  231       232 1     0.01  0.02 0.015                           223                                                
  234       232 1     0.35  1.81 0.798                           223                                                
  236       232 1     0.04  0.19 0.085                           329                                                
  234       235 1        0  9.25     0                           445                                                
  226       234 2     1.07  5.59 2.468                           445                                                
  219       234 2     0.82  6.04  5.41                           445                                                
  230       231 1        0  8.08     0                           445                                                
  229       231 1        0  8.08     0                           938                                                
  240       247 1     0.22  1.13 0.528                           445                                                
  240       242 1     0.13  0.72 0.318                           445                                                
  240       242 2     0.13  0.72 0.298                           445                                                
  240       242 3     0.13   0.7 0.318                           445                                                
  240       245 3     0.58  2.96 1.385                           445                                                
  240       219 2     0.39   2.8 2.605                           445                                                
  240       241 1        0  1.22     0                           223                                                
  240       241 2        0   1.4     0                           223                                                
  241       220 2     0.14  1.3334.198                           223                                                
  249       240 1     1.02  5.58  2.33                           329                                                
  249       240 2     1.05  5.71 2.355                           329                                                
  242       244 1     0.11  0.57 0.263                           445                                                
  242       244 2     0.11  0.62 0.258                           445                                                
  242       243 1        0    13     0                           445                                                
  242       243 2        0  8.89     0                           445                                                
  244       251 1        0 12.47     0                           445                                                
  244       251 2        0 14.71     0                           445                                                
  244       251 3        0  13.2     0                           445                                                
  247       248 1        0  6.67     0                           530                                                
  300       247 1     0.64  3.25 1.515                           445                                                
  249       250 1        0    13     0                           530                                                
  249       250 2        0  13.1     0                           530                                                
  260       240 1      3.1 16.14   7.4                           445                                                
  263       241 1     0.17  2.15 54.67                            76                                                
  263       220 1     0.31  3.04 80.05                            76                                                
  252       220 1     0.16  2.4991.803                           530                                                
  260       208 1     1.75 12.3711.405                           530                                                
  260       249 1     2.09 11.39  4.75                           445                                                
  260       249 2      2.1 11.44  4.74                           445                                                
  240       300 1     0.53  2.71 1.245                           170                                                
  308       241 1     0.04  0.52 13.36                           530                                                
  315       286 1      0.2  2.6867.985                            51                                                
  316       286 1     0.16  2.25  82.4                            51                                                
  287       202 1     0.78     4 1.875                            51                                                
  287       286 1        0  3.56     0                            51                                                
  287       286 2        0  3.56     0                            51                                                
  286       317 1     0.04  0.55 13.85                            76                                                
  286       285 1        0   1.9     0                            76                                                
  288       290 1        0  2.06     0                            51                                                
  289       290 1        0  2.06     0                           131                                                
  291       290 1        0 -0.04     0                            66                                                
  291       320 1     0.31   3.119.934                            76                                                
  291       286 1     0.29  3.9925.715                            76                                                
  291       252 1     0.15  2.3621.762                            76                                                
  291       252 2     0.28  2.7918.242                            76                                                
  318       291 1     0.24  3.1820.386                            76                                                
  276       265 1        0 13.48     0                            83                                                
  276       266 1        0 14.22     0                            83                                                
  276       267 1        0 19.91     0                            83                                                
  276       268 1        0  12.4     0                            83                                                
  276       269 1        0 15.78     0                            83                                                
  276       270 1        0 15.52     0                            83                                                
  276       273 1      0.1  0.52 0.245                           170                                                
  276       322 1     3.09 16.25 7.355                           170                                                
  276       260 1     3.98 21.85 9.195                           170                                                
  277       319 1     2.45 13.06 5.635                           223                                                
  276       271 1     2.96 15.19  7.15                           170                                                
  276       253 1     3.77 19.81 9.135                           170                                                
  276       292 1        0  1.41     0                           165                                                
  276       264 1        0 12.47     0                           165                                                
  277       282 1        0 21.12     0                           216                                                
  277       283 1        0  5.55     0                           216                                                
  277       284 1        0  6.02     0                           216                                                
  277       273 1      0.1  0.52 0.245                           938                                                
  277       275 1     1.09  4.33  6.26                           189                                                
  277       319 2     2.45 13.11 5.643                           223                                                
  277       271 1     2.95 15.19  7.15                           329                                                
  277       253 1      1.9 15.3911.683                           530                                                
  277       253 2     3.91 19.23 9.255                           530                                                
  277       292 1        0  1.41     0                           445                                                
  292       293 1        0  0.89     0                           938                                                
  292       295 1     0.05  0.68 16.85                           189                                                
...